#P

Gaussian input prepared by ASE

0 1
N                -0.0047210000        0.0105250000        0.2398770000
N                -0.0047210000        0.0105250000        0.2398770000
Cl               -1.6812980000        0.0892400000        0.0000000000
Pt               -0.0949250000       -0.3082790000        0.0000000000
Cl                1.7762230000       -0.9185280000        0.0000000000
H                 0.9519230000       -0.2234320000       -0.0784800000
H                -0.6522850000       -0.7466510000       -0.0790150000
H                -0.2949170000        0.9595570000       -0.0823820000
H                 0.9519230000       -0.2234320000       -0.0784800000
H                -0.6522850000       -0.7466510000       -0.0790150000
H                -0.2949170000        0.9595570000       -0.0823820000


